12
Benzene C6H6 (planar ring; units in Ã…)
C   1.396000   0.000000   0.000000
C   0.698000   1.209000   0.000000
C  -0.698000   1.209000   0.000000
C  -1.396000   0.000000   0.000000
C  -0.698000  -1.209000   0.000000
C   0.698000  -1.209000   0.000000
H   2.479000   0.000000   0.000000
H   1.239500   2.147800   0.000000
H  -1.239500   2.147800   0.000000
H  -2.479000   0.000000   0.000000
H  -1.239500  -2.147800   0.000000
H   1.239500  -2.147800   0.000000
