32
cell: a=13.31, b=4.09, c=5.77, alpha=90.00, beta=107.0, gamma=90.00, spacegroup=P21/c, temp=400K
C    1.0621   0.4232   0.0000
O    0.8631  -0.0877   1.2390
O    1.9072   0.8415   1.2989
C    2.0883   1.3359   0.1223
H   -0.0081   0.8765  -0.4007
H    1.0087  -0.6677  -0.5294
H    1.1456  -0.2448   2.1524
H    2.9863   1.7895  -0.3080
C    6.6029   0.9441   2.8850
O    5.7268   1.2501   1.6458
O    7.7453   0.3431   1.5863
C    7.9260  -0.1500   2.7678
H    6.6983   1.9447   3.2950
H    6.5166   0.2749   3.7901
H    7.6670   0.4967   0.6852
H    8.8221  -0.6061   3.2019
C   12.2476   3.6686   0.0000
O   11.4138   3.1621   1.2419
O   13.3644   4.1666   1.2948
C   13.5803   4.6776   0.1158
H   11.2127   2.1757  -0.4003
H   12.3150   4.0555  -0.5277
H   12.5252   3.4992   2.1477
H   14.4738   5.1404  -0.3122
C    6.7062   3.1678   2.8826
O    7.8144   2.6864   1.6437
O    5.8543   3.6705   1.5877
C    5.6728   4.1738   2.7715
H    6.5915   2.1697   3.2879
H    6.8482   3.8357   3.7918
H    5.9520   3.5143   0.6903
H    4.7761   4.6349   3.2059

