10
Azomethane (trans-1,2-dimethyldiazene, CH3-N=N-CH3)
N    0.000   0.000   0.000 
N    1.250   0.000   0.000 
C   -0.725   1.254   0.000 
C    1.975  -1.254   0.000 
H   -1.797   1.055   0.000 
H   -0.462   1.826  -0.890 
H   -0.462   1.826   0.890 
H    3.047  -1.055   0.000 
H    1.712  -1.826  -0.890 
H    1.712  -1.826   0.890 
