28
cell: a=9.115, b=11.092, c=14.544, alpha=69.99, beta=87.60, gamma=89.80, spacegroup=P-1, temp=550K
O    0.0000   0.0000   0.0000
O    1.4790   0.0000   0.0000
C    2.2197   0.8731   0.0931
C    3.5277   0.5808  -0.0146
C    4.3034   1.6541  -0.0102
C    3.7759   2.8320   0.1164
C    2.4570   2.5334   0.2215
H    5.3774   1.6086  -0.0993
H    4.2814   3.7107   0.1306
C    1.6785   1.4571   0.2230
H    0.6061   1.5043   0.3257
C    0.8976   2.5324   0.3154
H    0.0026   2.2800   0.4062
C    1.4341   3.7125   0.3057
H    0.8792   4.5543   0.3917
C   -1.4790   0.0000   0.0000
O   -2.2197  -0.8731  -0.0931
C   -3.5277  -0.5808   0.0146
C   -4.3034  -1.6541   0.0102
C   -3.7759  -2.8320  -0.1164
C   -2.4570  -2.5334  -0.2215
H   -5.3774  -1.6086   0.0993
H   -4.2814  -3.7107  -0.1306
C   -1.6785  -1.4571  -0.2230
H   -0.6061  -1.5043  -0.3257
C   -0.8976  -2.5324  -0.3154
H   -0.0026  -2.2800  -0.4062
C   -1.4341  -3.7125  -0.3057
H   -0.8792  -4.5543  -0.3917

