16
cell: a=5.645, b=5.645, c=4.704, alpha=90.00, beta=90.00, gamma=90.00, spacegroup=P-4 21 m, temp=300K
C    0.0000   2.8225   1.5628
O    0.0000   2.8225   2.8099
N    0.8108   3.5907   0.9995
N   -0.8108   2.0543   0.9995
H    1.4354   4.2370   1.5957
H    1.4354   3.9436  -0.1632
H   -1.4354   1.4079   1.5957
H   -1.4354   1.7113  -0.1632
C    2.8225   0.0000   3.1412
O    2.8225   0.0000   4.3971
N    3.5907   0.8108   2.5778
N    2.0543  -0.8108   2.5778
H    4.2370   1.4354   3.1739
H    3.9436   1.4354   1.4150
H    1.4079  -1.4354   3.1739
H    1.7113  -1.4354   1.4150
