36
cell: a=8.00, b=8.00, c=8.00, alpha=90.00, beta=90.00, gamma=90.00, spacegroup=P1, temp=300K
O 2.192 1.707 2.071
H 2.965 1.898 2.600
H 1.564 1.521 2.759
O 6.014 2.551 1.606
H 6.632 3.280 1.579
H 5.216 2.970 1.758
O 1.422 5.611 2.470
H 2.029 6.375 2.363
H 0.587 6.062 2.541
O 5.234 6.521 1.962
H 6.120 6.630 2.445
H 4.668 6.283 2.630
O 2.485 1.646 4.107
H 3.274 1.775 4.515
H 1.771 1.422 4.702
O 6.308 2.420 3.561
H 6.967 3.176 3.529
H 5.456 2.854 3.770
O 1.680 5.551 4.384
H 2.306 6.237 4.363
H 0.864 5.973 4.565
O 5.567 6.400 3.957
H 6.336 6.440 4.400
H 4.872 6.146 4.647
O 2.763 1.495 6.064
H 3.530 1.676 6.533
H 2.048 1.297 6.728
O 5.798 6.254 5.947
H 6.626 6.339 6.446
H 5.169 6.014 6.535
Na 3.550 4.193 1.063
Cl 4.088 3.914 4.680
Na 1.548 3.204 7.379
Cl 5.418 3.977 6.867
Na 7.917 1.580 7.750
Cl 6.929 6.420 0.199
