          35
  temp=80K Built with Packmol                                             
  C            2.206040        0.583735        1.055112
  H            1.467138        1.251672        0.612412
  H            3.022064        0.992185        1.651244
  H            2.128917       -0.492654        0.901680
  Cl           1.204392        0.446671        2.520143
  O            3.089475        1.142884       -1.105188
  H            2.321056        1.691983       -1.277303
  C            0.969706       -0.726316       -2.477941
  H            0.962977       -0.442394       -1.425589
  H            0.038574       -0.998438       -2.974974
  H            1.907567       -0.738114       -3.033258
  Cl           0.718429        0.974621       -2.938455
  O            1.293128       -2.779768       -1.278468
  H            1.252329       -2.300799       -0.447490
  C           -2.333448       -1.299063       -0.697190
  H           -2.661269       -1.112224        0.325417
  H           -1.277436       -1.217157       -0.954542
  H           -3.061639       -1.567807       -1.462445
  Cl          -2.105369       -3.021273       -0.309412
  O           -2.817309        1.050371       -0.619462
  H           -3.064357        0.968920        0.304623
  C           -0.605951       -2.282560        2.024457
  H           -0.828998       -2.598449        3.043557
  H           -0.704487       -1.233577        1.745126
  H           -0.284369       -3.015655        1.284688
  Cl           1.090761       -2.001059        2.483067
  O           -2.942812       -2.829197        2.007938
  H           -2.895723       -3.058637        2.938927
  C           -0.450399        2.490375       -0.548003
  H           -1.371436        2.939093       -0.175925
  H           -0.441806        1.447836       -0.866027
  H            0.462046        3.084195       -0.602056
  Cl          -0.874589        2.991571       -2.202471
  O           -0.422824        2.093345        1.818769
  H           -1.265584        2.545041        1.904361
